test/test_data/case5_2_lcc.raw
0,   100.00, 33, 0, 1, 60.00     / PSS(R)E 33 RAW created by rawd33  WED, AUG 27 2025  16:59


   101,'BUS 101     ', 230.0000,1,   1,   1,   1,1.00070,   1.9214,1.10000,0.90000,1.10000,0.90000
   102,'BUS 102     ', 230.0000,3,   1,   1,   1,1.00000,   0.0000,1.10000,0.90000,1.10000,0.90000
   103,'BUS 103     ', 230.0000,2,   1,   1,   1,1.00000,   2.3784,1.10000,0.90000,1.10000,0.90000
   104,'BUS 104     ', 230.0000,2,   1,   1,   1,1.00000,  -0.8449,1.10000,0.90000,1.10000,0.90000
   105,'BUS 105     ',   0.0000,1,   1,   1,   1,1.00286,   2.3865,1.10000,0.90000,1.10000,0.90000
0 / END OF BUS DATA, BEGIN LOAD DATA
   101,'1 ',1,   1,   1,    15.000,     5.000,     0.000,     0.000,     0.000,     0.000,   1,1,0
   103,'1 ',1,   1,   1,     8.000,     2.000,     0.000,     0.000,     0.000,     0.000,   1,1,0
   105,'1 ',1,   1,   1,     8.000,     2.000,     0.000,     0.000,     0.000,     0.000,   1,1,0
0 / END OF LOAD DATA, BEGIN FIXED SHUNT DATA
0 / END OF FIXED SHUNT DATA, BEGIN GENERATOR DATA
   102,'1 ',    83.088,   279.122,  9999.000, -9999.000,1.00000,     0,   100.000, 0.00000E+0, 1.00000E+0, 0.00000E+0, 0.00000E+0,1.00000,1,  100.0,  9999.000, -9999.000,   1,1.0000
   103,'1 ',    20.000, -1448.133,  9999.000, -9999.000,1.00000,     0,   100.000, 0.00000E+0, 1.00000E+0, 0.00000E+0, 0.00000E+0,1.00000,1,  100.0,  9999.000, -9999.000,   1,1.0000
   104,'1 ',    15.000,  1172.552,  9999.000, -9999.000,1.00000,     0,   100.000, 0.00000E+0, 1.00000E+0, 0.00000E+0, 0.00000E+0,1.00000,1,  100.0,  9999.000, -9999.000,   1,1.0000
0 / END OF GENERATOR DATA, BEGIN BRANCH DATA
   101,   102,'1 ', 2.30000E-3, 1.00000E-4,   0.09870,    0.00,    0.00,    0.00,  0.00000,  0.00000,  0.00000,  0.00000,1,1,   0.00,   1,1.0000
   101,   103,'1 ', 5.40000E-4, 1.00000E-4,   0.00034,    0.00,    0.00,    0.00,  0.00000,  0.00000,  0.00000,  0.00000,1,1,   0.00,   1,1.0000
   102,   104,'1 ', 1.25000E-3, 1.00000E-4,   0.00534,    0.00,    0.00,    0.00,  0.00000,  0.00000,  0.00000,  0.00000,1,1,   0.00,   1,1.0000
   103,   105,'1 ', 3.42000E-3, 1.00000E-4,   0.00654,    0.00,    0.00,    0.00,  0.00000,  0.00000,  0.00000,  0.00000,1,1,   0.00,   1,1.0000
0 / END OF BRANCH DATA, BEGIN TRANSFORMER DATA
0 / END OF TRANSFORMER DATA, BEGIN AREA DATA
0 / END OF AREA DATA, BEGIN TWO-TERMINAL DC DATA
"LINE       1",1,   20.0000,     50.00,    230.00,      0.00,    0.0000,   0.00000,'I',      0.00,  20,   1.00000
   102, 1,90.00, 5.00, 0.3000, 0.0000, 230.0,1.00000,1.00000,1.50000,0.51000,0.00625,     0,     0,     0,'1 ', 0.0000
   103, 1,90.00,18.00, 0.3000, 0.0000, 230.0,1.00000,1.00000,1.50000,0.51000,0.00625,     0,     0,     0,'1 ', 0.0000
"LINE       2",1,   50.0000,    100.00,    230.00,      0.00,    0.0000,   0.00000,'I',      0.00,  20,   1.00000
   104, 1,90.00, 5.00, 0.4000, 0.0000, 230.0,1.00000,1.00000,1.50000,0.51000,0.00625,     0,     0,     0,'1 ', 0.0000
   105, 1,90.00,18.00, 0.4000, 0.0000, 230.0,1.00000,1.00000,1.50000,0.51000,0.00625,     0,     0,     0,'1 ', 0.0000
0 / END OF TWO-TERMINAL DC DATA, BEGIN VSC DC LINE DATA
0 / END OF VSC DC LINE DATA, BEGIN IMPEDANCE CORRECTION DATA
0 / END OF IMPEDANCE CORRECTION DATA, BEGIN MULTI-TERMINAL DC DATA
0 / END OF MULTI-TERMINAL DC DATA, BEGIN MULTI-SECTION LINE DATA
0 / END OF MULTI-SECTION LINE DATA, BEGIN ZONE DATA
0 / END OF ZONE DATA, BEGIN INTER-AREA TRANSFER DATA
0 / END OF INTER-AREA TRANSFER DATA, BEGIN OWNER DATA
0 / END OF OWNER DATA, BEGIN FACTS DEVICE DATA
0 / END OF FACTS DEVICE DATA, BEGIN SWITCHED SHUNT DATA
0 / END OF SWITCHED SHUNT DATA, BEGIN GNE DATA
0 / END OF GNE DATA, BEGIN INDUCTION MACHINE DATA
0 / END OF INDUCTION MACHINE DATA
Q
